mydock_rec_1
 OpenBabel01212103263D
a=DYR1B_HUMAN_trm;  Pdb: 4yll
 49 53  0  0  0  0  0  0  0  0999 V2000
   12.4971   46.0479   36.1540 H   0  0  0  0  0  0  0  0  0  0  0  0
   12.5174   45.9102   37.2390 *   0  0  0  0  0  0  0  0  0  0  0  0
   11.5032   45.7471   37.6139 H   0  0  0  0  0  0  0  0  0  0  0  0
   13.1522   45.0537   37.4856 H   0  0  0  0  0  0  0  0  0  0  0  0
   13.0588   47.0964   37.8582 *   0  0  0  0  0  0  0  0  0  0  0  0
   12.4474   47.6256   38.4716 H   0  0  0  0  0  0  0  0  0  0  0  0
   14.3324   47.5380   37.5430 *   0  0  0  0  0  0  0  0  0  0  0  0
   15.0680   46.9953   36.7312 *   0  0  0  0  0  0  0  0  0  0  0  0
   14.8048   48.7660   38.2412 *   0  0  0  0  0  0  0  0  0  0  0  0
   14.2485   49.1631   39.4437 *   0  0  0  0  0  0  0  0  0  0  0  0
   13.4833   48.5783   39.9412 H   0  0  0  0  0  0  0  0  0  0  0  0
   14.5812   50.2664   40.1176 *   0  0  0  0  0  0  0  0  0  0  0  0
   15.5417   50.9745   39.5178 *   0  0  0  0  0  0  0  0  0  0  0  0
   16.2161   50.6917   38.3406 *   0  0  0  0  0  0  0  0  0  0  0  0
   15.8344   49.5167   37.6814 *   0  0  0  0  0  0  0  0  0  0  0  0
   16.2895   49.1901   36.7550 H   0  0  0  0  0  0  0  0  0  0  0  0
   17.1648   51.7683   38.1414 *   0  0  0  0  0  0  0  0  0  0  0  0
   16.9793   52.6430   39.2029 *   0  0  0  0  0  0  0  0  0  0  0  0
   17.4452   53.5834   39.4630 H   0  0  0  0  0  0  0  0  0  0  0  0
   16.0030   52.1513   40.0156 *   0  0  0  0  0  0  0  0  0  0  0  0
   15.6441   52.5914   40.8541 H   0  0  0  0  0  0  0  0  0  0  0  0
   18.1592   52.0272   37.0904 *   0  0  0  0  0  0  0  0  0  0  0  0
   19.0454   53.0966   37.1825 *   0  0  0  0  0  0  0  0  0  0  0  0
   19.0459   53.7797   38.0241 H   0  0  0  0  0  0  0  0  0  0  0  0
   19.9695   53.3238   36.1861 *   0  0  0  0  0  0  0  0  0  0  0  0
   20.7839   54.3857   36.3204 F   0  0  0  0  0  0  0  0  0  0  0  0
   20.0893   52.5098   35.0666 *   0  0  0  0  0  0  0  0  0  0  0  0
   19.2131   51.4234   34.9555 *   0  0  0  0  0  0  0  0  0  0  0  0
   18.2597   51.2209   35.9584 *   0  0  0  0  0  0  0  0  0  0  0  0
   17.5640   50.4065   35.8395 H   0  0  0  0  0  0  0  0  0  0  0  0
   19.3125   50.5752   33.8322 *   0  0  0  0  0  0  0  0  0  0  0  0
   20.2567   50.9112   32.8682 *   0  0  0  0  0  0  0  0  0  0  0  0
   20.3769   50.3178   31.9671 H   0  0  0  0  0  0  0  0  0  0  0  0
   21.0826   51.9906   33.0705 *   0  0  0  0  0  0  0  0  0  0  0  0
   21.8471   52.2405   32.3414 H   0  0  0  0  0  0  0  0  0  0  0  0
   21.0347   52.7790   34.1477 *   0  0  0  0  0  0  0  0  0  0  0  0
   18.5168   49.3556   33.6563 *   0  0  0  0  0  0  0  0  0  0  0  0
   18.7272   48.2588   34.4910 *   0  0  0  0  0  0  0  0  0  0  0  0
   19.4710   48.3102   35.2731 H   0  0  0  0  0  0  0  0  0  0  0  0
   18.0935   47.0802   34.4400 *   0  0  0  0  0  0  0  0  0  0  0  0
   17.1692   46.9729   33.4823 *   0  0  0  0  0  0  0  0  0  0  0  0
   16.6479   46.0213   33.4454 H   0  0  0  0  0  0  0  0  0  0  0  0
   16.8775   47.9777   32.5812 *   0  0  0  0  0  0  0  0  0  0  0  0
   16.1251   47.8002   31.8219 H   0  0  0  0  0  0  0  0  0  0  0  0
   17.5497   49.1950   32.6534 *   0  0  0  0  0  0  0  0  0  0  0  0
   17.2459   50.2636   31.6418 *   0  0  0  0  0  0  0  0  0  0  0  0
   17.9863   50.2518   30.8359 H   0  0  0  0  0  0  0  0  0  0  0  0
   17.2295   51.2564   32.0976 H   0  0  0  0  0  0  0  0  0  0  0  0
   16.2602   50.1027   31.1972 H   0  0  0  0  0  0  0  0  0  0  0  0
  1  2  1  0  0  0  0
  2  3  1  0  0  0  0
  2  4  1  0  0  0  0
  2  5  1  0  0  0  0
  5  6  1  0  0  0  0
  5  7  1  0  0  0  0
  7  8  2  0  0  0  0
  7  9  1  0  0  0  0
  9 10  1  0  0  0  0
  9 15  2  0  0  0  0
 10 11  1  0  0  0  0
 10 12  2  0  0  0  0
 12 13  1  0  0  0  0
 13 14  2  0  0  0  0
 13 20  1  0  0  0  0
 14 15  1  0  0  0  0
 14 17  1  0  0  0  0
 15 16  1  0  0  0  0
 17 18  2  0  0  0  0
 17 22  1  0  0  0  0
 18 19  1  0  0  0  0
 18 20  1  0  0  0  0
 20 21  1  0  0  0  0
 22 23  1  0  0  0  0
 22 29  2  0  0  0  0
 23 24  1  0  0  0  0
 23 25  2  0  0  0  0
 25 26  1  0  0  0  0
 25 27  1  0  0  0  0
 27 28  2  0  0  0  0
 27 36  1  0  0  0  0
 28 29  1  0  0  0  0
 28 31  1  0  0  0  0
 29 30  1  0  0  0  0
 31 32  2  0  0  0  0
 31 37  1  0  0  0  0
 32 33  1  0  0  0  0
 32 34  1  0  0  0  0
 34 35  1  0  0  0  0
 34 36  2  0  0  0  0
 37 38  2  0  0  0  0
 37 45  1  0  0  0  0
 38 39  1  0  0  0  0
 38 40  1  0  0  0  0
 40 41  2  0  0  0  0
 41 42  1  0  0  0  0
 41 43  1  0  0  0  0
 43 44  1  0  0  0  0
 43 45  2  0  0  0  0
 45 46  1  0  0  0  0
 46 47  1  0  0  0  0
 46 48  1  0  0  0  0
 46 49  1  0  0  0  0
M  END
$$$$
